testData/tamu2000/pfcases_100_zone3/Equ_tx2000_hr_4891_mod_v23_zone3_pslf.raw
0  100.000 
THIS IS A SYNTHETIC POWER SYSTEM MODEL THAT DOES NOT REPRESE
DATA RESEARCH PROJECT AND CONTAINS NO CEII.
1048,  2,  153.107,  15.667,  0.000,  0.000,  1,  1.00000,  -96.3608,  'MONAHANS',  18.000,  9
1049,  2,  101.121,  23.188,  0.000,  0.000,  1,  1.00000,  -87.6151,  'MONAHANS',  18.000,  9
1053,  2,  91.822,  -13.889,  0.000,  0.000,  1,  1.00173,  -112.7686,  'MONAHANS',  230.00,  9
1072,  3,  135.632,  -0.693,  0.000,  0.000,  1,  1.01000,  -110.6337,  'ODESSA 1',  18.000,  9
1073,  2,  95.223,  0.660,  0.000,  0.000,  1,  1.01000,  -108.1615,  'ODESSA 1',  18.000,  9
1074,  2,  98.176,  5.347,  0.000,  0.000,  1,  1.01000,  -108.6180,  'ODESSA 1',  18.000,  9
1075,  2,  119.766,  2.584,  0.000,  0.000,  1,  1.01000,  -110.5658,  'ODESSA 1',  18.000,  9
1076,  2,  205.587,  -10.397,  0.000,  0.000,  1,  1.01000,  -114.4915,  'ODESSA 1',  18.000,  9
1077,  2,  100.442,  4.336,  0.000,  0.000,  1,  1.01000,  -108.9359,  'ODESSA 1',  18.000,  9
1081,  2,  538.241,  -88.993,  0.000,  0.000,  1,  1.01000,  -116.9220,  'ODESSA 1',  230.00,  9
2004,  2,  144.126,  -15.659,  0.000,  0.000,  2,  1.02000,  -124.1250,  'SAVOY 2 ',  13.800,  11
2005,  2,  125.407,  -14.011,  0.000,  0.000,  2,  1.02000,  -123.9641,  'SAVOY 3 ',  13.800,  11
2006,  2,  84.175,  -9.175,  0.000,  0.000,  2,  1.02000,  -123.3424,  'SAVOY 4 ',  13.800,  11
2024,  2,  103.485,  -8.429,  0.000,  0.000,  2,  1.02000,  -122.1614,  'PARIS 2 ',  13.800,  11
2057,  3,  311.217,  -111.108,  0.000,  0.000,  2,  0.99000,  -123.7791,  'WICHITA ',  18.000,  11
2100,  2,  96.463,  -39.262,  0.000,  0.000,  2,  1.02120,  -127.1351,  'RALLS 1 ',  18.000,  10
2103,  2,  207.125,  -20.686,  0.000,  0.000,  2,  1.02017,  -125.2110,  'SHERMAN ',  20.000,  11
2104,  2,  154.835,  -15.427,  0.000,  0.000,  2,  1.01902,  -125.0387,  'SHERMAN ',  20.000,  11
2105,  2,  95.028,  -10.504,  0.000,  0.000,  2,  1.01637,  -124.6121,  'SHERMAN ',  20.000,  11
2115,  2,  72.530,  -7.613,  0.000,  0.000,  2,  1.01540,  -120.7294,  'PARIS 1 ',  13.800,  11
2116,  2,  127.345,  -10.743,  0.000,  0.000,  2,  1.01939,  -122.0911,  'PARIS 1 ',  13.800,  11
2117,  2,  64.709,  -6.040,  0.000,  0.000,  2,  1.01329,  -120.2807,  'PARIS 1 ',  13.800,  11
2118,  2,  64.849,  -6.652,  0.000,  0.000,  2,  1.01220,  -119.9225,  'PARIS 1 ',  13.800,  11
2119,  2,  100.606,  -9.384,  0.000,  0.000,  2,  1.01844,  -121.7708,  'PARIS 1 ',  13.800,  11
2120,  2,  63.717,  -6.362,  0.000,  0.000,  2,  1.01283,  -120.0655,  'PARIS 1 ',  13.800,  11
3028,  2,  168.134,  -31.268,  0.000,  0.000,  3,  1.04000,  -127.4761,  'ABILENE ',  18.000,  27
3045,  2,  181.527,  -6.523,  0.000,  0.000,  3,  1.04000,  -116.5496,  'SILVER 4',  13.800,  27
3106,  3,  55.205,  -5.909,  0.000,  0.000,  3,  1.00000,  -123.0945,  'BUCHANAN',  13.200,  28
4026,  2,  305.261,  21.274,  0.000,  0.000,  4,  1.03000,  -122.2314,  'CHRISTIN',  13.800,  20
4030,  3,  291.363,  29.772,  0.000,  0.000,  4,  1.01000,  -109.1984,  'FANNIN 2',  13.800,  21
4047,  2,  76.511,  0.810,  0.000,  0.000,  4,  1.02000,  -149.5061,  'FALCON H',  13.800,  19
4058,  2,  54.465,  13.400,  0.000,  0.000,  4,  1.03000,  -129.1242,  'GREGORY ',  13.800,  21
4059,  2,  61.558,  14.503,  0.000,  0.000,  4,  1.03000,  -129.6522,  'GREGORY ',  13.800,  21
4060,  2,  44.399,  10.551,  0.000,  0.000,  4,  1.03000,  -127.6507,  'GREGORY ',  13.800,  21
4061,  2,  55.949,  13.985,  0.000,  0.000,  4,  1.03000,  -128.5323,  'GREGORY ',  13.800,  21
4062,  2,  52.298,  11.666,  0.000,  0.000,  4,  1.03000,  -127.5640,  'GREGORY ',  13.800,  21
4063,  2,  54.934,  14.516,  0.000,  0.000,  4,  1.03000,  -128.4530,  'GREGORY ',  13.800,  21
4082,  2,  119.843,  15.932,  0.000,  0.000,  4,  1.04000,  -134.1669,  'CORPUS C',  13.800,  21
4083,  2,  130.052,  16.093,  0.000,  0.000,  4,  1.04000,  -134.6165,  'CORPUS C',  13.800,  21
4084,  2,  219.273,  21.339,  0.000,  0.000,  4,  1.04000,  -136.9974,  'CORPUS C',  13.800,  21
4085,  2,  261.884,  27.178,  0.000,  0.000,  4,  1.04000,  -135.7412,  'CORPUS C',  13.800,  21
4115,  2,  211.879,  -24.328,  0.000,  0.000,  4,  1.04000,  -143.7832,  'LAREDO 1',  13.800,  20
4116,  2,  201.342,  -24.940,  0.000,  0.000,  4,  1.04000,  -143.7336,  'LAREDO 1',  13.800,  20
4160,  2,  254.587,  52.637,  0.000,  0.000,  4,  1.03000,  -134.0156,  'CORPUS C',  13.800,  21
4161,  2,  107.012,  26.446,  0.000,  0.000,  4,  1.03000,  -131.2537,  'CORPUS C',  13.800,  21
4162,  2,  107.293,  24.586,  0.000,  0.000,  4,  1.03000,  -131.3245,  'CORPUS C',  13.800,  21
4181,  2,  488.815,  35.848,  0.000,  0.000,  4,  1.00005,  -131.6724,  'TAFT 1 0',  230.00,  21
4192,  2,  1783.565,  -17.857,  0.000,  0.000,  4,  1.02000,  -147.4667,  'BROWNSVI',  230.00,  19
5037,  2,  313.375,  5.463,  0.000,  0.000,  5,  1.02000,  -124.0401,  'DALLAS 1',  13.200,  16
5038,  2,  303.284,  6.309,  0.000,  0.000,  5,  1.02000,  -123.9743,  'DALLAS 1',  13.200,  16
5039,  2,  733.812,  -7.120,  0.000,  0.000,  5,  1.02043,  -125.1663,  'DALLAS 1',  13.200,  16
5040,  2,  231.905,  6.130,  0.000,  0.000,  5,  1.02000,  -123.3150,  'DALLAS 1',  13.200,  16
5041,  2,  335.003,  2.958,  0.000,  0.000,  5,  1.02000,  -124.1647,  'DALLAS 1',  13.200,  16
5042,  2,  282.823,  6.912,  0.000,  0.000,  5,  1.02000,  -123.8217,  'DALLAS 1',  13.200,  16
5057,  2,  220.380,  -38.750,  0.000,  0.000,  5,  1.01959,  -121.8409,  'GRAHAM 2',  13.800,  12
5058,  2,  157.406,  -25.080,  0.000,  0.000,  5,  1.01680,  -120.7772,  'GRAHAM 3',  13.800,  12
5067,  2,  472.093,  -2.119,  0.000,  0.000,  5,  1.03000,  -123.8323,  'ARLINGTO',  13.800,  17
5068,  2,  449.323,  -2.739,  0.000,  0.000,  5,  1.03000,  -123.7048,  'ARLINGTO',  13.800,  17
5069,  2,  422.848,  -1.701,  0.000,  0.000,  5,  1.03000,  -123.5341,  'ARLINGTO',  13.800,  17
5166,  2,  218.399,  -17.444,  0.000,  0.000,  5,  1.04000,  -125.8950,  'DENTON 1',  13.800,  17
5206,  2,  151.245,  -16.103,  0.000,  0.000,  5,  1.01832,  -121.7124,  'POOLVILL',  13.800,  12
5207,  2,  255.552,  -30.871,  0.000,  0.000,  5,  1.02122,  -122.9729,  'POOLVILL',  13.800,  12
5208,  2,  206.197,  -23.522,  0.000,  0.000,  5,  1.02036,  -122.5960,  'POOLVILL',  13.800,  12
5238,  2,  334.485,  -129.557,  0.000,  0.000,  5,  1.02625,  -125.3179,  'OLNEY 1 ',  18.000,  12
5262,  2,  489.700,  -1.557,  0.000,  0.000,  5,  1.01000,  -118.2968,  'GLEN ROS',  13.800,  18
5263,  2,  681.424,  -12.377,  0.000,  0.000,  5,  1.01113,  -119.5312,  'GLEN ROS',  13.800,  18
5281,  2,  220.815,  13.615,  0.000,  0.000,  5,  1.00604,  -119.7899,  'TEMPLE 1',  13.800,  13
5282,  2,  256.618,  16.209,  0.000,  0.000,  5,  1.00715,  -120.1229,  'TEMPLE 1',  13.800,  13
5283,  2,  343.400,  17.121,  0.000,  0.000,  5,  1.00864,  -120.5500,  'TEMPLE 1',  13.800,  13
5298,  2,  409.440,  -18.229,  0.000,  0.000,  5,  1.03560,  -126.1550,  'MCKINNEY',  13.800,  16
5299,  2,  175.503,  0.568,  0.000,  0.000,  5,  1.04000,  -125.7511,  'MCKINNEY',  13.800,  16
5300,  2,  213.368,  -0.988,  0.000,  0.000,  5,  1.03991,  -125.8863,  'MCKINNEY',  13.800,  16
5302,  2,  248.806,  8.559,  0.000,  0.000,  5,  1.04000,  -122.7836,  'MCKINNEY',  13.800,  16
5303,  2,  339.071,  1.842,  0.000,  0.000,  5,  1.04000,  -123.7384,  'MCKINNEY',  13.800,  16
5319,  2,  223.863,  -7.107,  0.000,  0.000,  5,  1.01014,  -121.9989,  'GRANBURY',  13.200,  18
5320,  2,  204.952,  -8.120,  0.000,  0.000,  5,  1.01000,  -121.7847,  'GRANBURY',  13.200,  18
5321,  2,  233.977,  -6.222,  0.000,  0.000,  5,  1.01046,  -122.0858,  'GRANBURY',  13.200,  18
5324,  2,  256.616,  8.825,  0.000,  0.000,  5,  1.04000,  -123.7833,  'DALLAS 2',  13.800,  17
5325,  2,  256.493,  10.710,  0.000,  0.000,  5,  1.04000,  -123.7769,  'DALLAS 2',  13.800,  17
5326,  2,  774.568,  -27.876,  0.000,  0.000,  5,  1.03804,  -125.8485,  'DALLAS 2',  13.800,  17
5343,  2,  171.938,  -2.044,  0.000,  0.000,  5,  1.04000,  -128.9488,  'LEWISVIL',  13.800,  17
5360,  3,  243.537,  23.635,  0.000,  0.000,  5,  1.01000,  -118.7581,  'RIESEL 1',  13.800,  13
5364,  2,  265.924,  -21.672,  0.000,  0.000,  5,  1.02044,  -123.3466,  'BRIDGEPO',  13.800,  12
5365,  2,  135.688,  -9.981,  0.000,  0.000,  5,  1.01779,  -122.3069,  'BRIDGEPO',  13.800,  12
5366,  2,  123.346,  -9.730,  0.000,  0.000,  5,  1.01719,  -122.0301,  'BRIDGEPO',  13.800,  12
5367,  2,  126.427,  -9.291,  0.000,  0.000,  5,  1.01726,  -122.0979,  'BRIDGEPO',  13.800,  12
5368,  2,  176.341,  -13.907,  0.000,  0.000,  5,  1.01923,  -122.8390,  'BRIDGEPO',  13.800,  12
5369,  2,  118.664,  -9.312,  0.000,  0.000,  5,  1.01688,  -121.9096,  'BRIDGEPO',  13.800,  12
5382,  2,  252.464,  22.075,  0.000,  0.000,  5,  1.03881,  -123.4448,  'ENNIS 2 ',  13.800,  14
5383,  2,  224.561,  21.588,  0.000,  0.000,  5,  1.04000,  -123.2222,  'ENNIS 3 ',  13.800,  14
5415,  2,  98.492,  -23.059,  0.000,  0.000,  5,  1.02273,  -123.5530,  'PALO PIN',  13.800,  12
5416,  2,  97.536,  -22.536,  0.000,  0.000,  5,  1.02262,  -123.5396,  'PALO PIN',  13.800,  12
5417,  2,  112.575,  -25.183,  0.000,  0.000,  5,  1.02311,  -123.6884,  'PALO PIN',  13.800,  12
5418,  2,  114.814,  -27.065,  0.000,  0.000,  5,  1.02357,  -123.7499,  'PALO PIN',  13.800,  12
5419,  2,  196.294,  -44.610,  0.000,  0.000,  5,  1.02495,  -124.1797,  'PALO PIN',  13.800,  12
5444,  2,  1688.813,  -77.776,  0.000,  0.000,  5,  1.01626,  -123.4714,  'MIDLOTHI',  500.00,  17
6006,  2,  97.538,  1.023,  0.000,  0.000,  6,  1.04000,  -114.1399,  'BASTROP ',  13.800,  25
6007,  2,  151.667,  2.347,  0.000,  0.000,  6,  1.04000,  -113.5327,  'BASTROP ',  13.800,  25
6008,  2,  77.273,  4.912,  0.000,  0.000,  6,  1.04000,  -114.2501,  'BASTROP ',  13.800,  25
6009,  2,  52.653,  5.532,  0.000,  0.000,  6,  1.04000,  -113.5106,  'BASTROP ',  13.800,  25
6010,  2,  67.763,  3.889,  0.000,  0.000,  6,  1.04000,  -114.0708,  'BASTROP ',  13.800,  25
6042,  2,  29.198,  7.114,  0.000,  0.000,  6,  1.04000,  -116.0409,  'AUSTIN 3',  13.800,  23
6062,  1,  431.038,  22.078,  0.000,  0.000,  6,  1.00511,  -104.0418,  'BRENHAM ',  500.00,  25
6069,  2,  232.737,  -2.405,  0.000,  0.000,  6,  1.03000,  -113.6801,  'MARION 1',  18.000,  22
6070,  2,  98.965,  4.073,  0.000,  0.000,  6,  1.03000,  -112.4564,  'MARION 1',  18.000,  22
6071,  2,  294.301,  -2.877,  0.000,  0.000,  6,  1.03000,  -113.8569,  'MARION 1',  18.000,  22
6072,  2,  116.144,  5.115,  0.000,  0.000,  6,  1.03000,  -112.8271,  'MARION 1',  18.000,  22
6073,  2,  179.252,  -0.837,  0.000,  0.000,  6,  1.03000,  -113.3960,  'MARION 1',  18.000,  22
6074,  2,  180.746,  -2.027,  0.000,  0.000,  6,  1.03000,  -113.4068,  'MARION 1',  18.000,  22
6078,  2,  86.363,  -14.774,  0.000,  0.000,  6,  1.00000,  -103.5109,  'LA GRANG',  22.000,  25
6079,  2,  147.357,  -29.688,  0.000,  0.000,  6,  1.00000,  -104.1141,  'LA GRANG',  22.000,  25
6080,  2,  119.068,  -21.691,  0.000,  0.000,  6,  1.00000,  -103.9218,  'LA GRANG',  22.000,  25
6106,  2,  133.593,  -13.062,  0.000,  0.000,  6,  1.00678,  -105.4156,  'WINCHEST',  13.800,  25
6110,  2,  237.451,  14.927,  0.000,  0.000,  6,  1.04000,  -117.3468,  'ROCKDALE',  13.800,  25
6111,  2,  240.521,  15.651,  0.000,  0.000,  6,  1.04000,  -117.2344,  'ROCKDALE',  13.800,  25
6145,  2,  225.923,  21.657,  0.000,  0.000,  6,  1.03000,  -109.3578,  'SAN ANTO',  13.800,  22
6146,  2,  234.104,  22.162,  0.000,  0.000,  6,  1.03000,  -109.5174,  'SAN ANTO',  13.800,  22
6147,  3,  261.444,  18.028,  0.000,  0.000,  6,  1.03000,  -111.3517,  'SAN ANTO',  13.800,  22
6148,  2,  427.128,  26.548,  0.000,  0.000,  6,  1.03000,  -111.6088,  'SAN ANTO',  13.800,  22
6149,  2,  746.407,  28.735,  0.000,  0.000,  6,  1.03000,  -112.6072,  'SAN ANTO',  13.800,  22
6164,  2,  150.678,  1.368,  0.000,  0.000,  6,  1.03000,  -110.7654,  'SEGUIN 1',  13.800,  22
6165,  2,  135.945,  0.951,  0.000,  0.000,  6,  1.03000,  -110.5595,  'SEGUIN 1',  13.800,  22
6166,  2,  308.094,  -5.710,  0.000,  0.000,  6,  1.03000,  -111.7301,  'SEGUIN 1',  13.800,  22
6167,  2,  170.990,  0.885,  0.000,  0.000,  6,  1.03000,  -110.9910,  'SEGUIN 1',  13.800,  22
6188,  1,  328.309,  29.152,  0.000,  0.000,  6,  0.94853,  -106.1687,  'COLUMBUS',  230.00,  25
6195,  1,  88.986,  7.088,  0.000,  0.000,  6,  0.94569,  -111.8571,  'INDUSTRY',  115.00,  25
6213,  2,  44.703,  3.453,  0.000,  0.000,  6,  1.04000,  -117.6079,  'MARBLE F',  13.800,  23
6214,  2,  86.313,  3.033,  0.000,  0.000,  6,  1.04000,  -116.7486,  'MARBLE F',  13.800,  23
6215,  2,  382.380,  -34.738,  0.000,  0.000,  6,  1.04000,  -118.0870,  'MARBLE F',  13.800,  23
6216,  2,  155.135,  -4.139,  0.000,  0.000,  6,  1.04000,  -117.5074,  'MARBLE F',  13.800,  23
6243,  2,  166.136,  8.317,  0.000,  0.000,  6,  1.04000,  -111.5144,  'ELMENDOR',  13.800,  22
6244,  2,  183.648,  7.379,  0.000,  0.000,  6,  1.04000,  -110.5308,  'ELMENDOR',  13.800,  22
6245,  2,  215.710,  6.288,  0.000,  0.000,  6,  1.04000,  -110.9377,  'ELMENDOR',  13.800,  22
6246,  2,  405.606,  -0.443,  0.000,  0.000,  6,  1.03665,  -112.0068,  'ELMENDOR',  13.800,  22
6247,  2,  332.426,  -3.253,  0.000,  0.000,  6,  1.03409,  -112.4081,  'ELMENDOR',  13.800,  22
6248,  2,  181.408,  8.390,  0.000,  0.000,  6,  1.04000,  -111.6665,  'ELMENDOR',  13.800,  22
6249,  2,  150.097,  14.093,  0.000,  0.000,  6,  1.04000,  -111.0103,  'ELMENDOR',  13.800,  22
6257,  2,  133.018,  17.391,  0.000,  0.000,  6,  1.02854,  -115.9747,  'AUSTIN 2',  13.800,  23
6258,  2,  68.038,  9.205,  0.000,  0.000,  6,  1.02639,  -115.1835,  'AUSTIN 2',  13.800,  23
6260,  2,  149.365,  17.934,  0.000,  0.000,  6,  1.02817,  -115.5988,  'AUSTIN 2',  13.800,  23
6295,  2,  157.684,  10.904,  0.000,  0.000,  6,  1.02981,  -115.8207,  'CEDAR CR',  13.800,  23
6296,  2,  184.368,  12.217,  0.000,  0.000,  6,  1.03006,  -115.9255,  'CEDAR CR',  13.800,  23
6297,  2,  65.117,  7.092,  0.000,  0.000,  6,  1.02697,  -114.8625,  'CEDAR CR',  13.800,  23
6302,  2,  127.313,  -0.761,  0.000,  0.000,  6,  1.01689,  -111.1485,  'NEW BRAU',  22.000,  22
6303,  2,  350.813,  -7.075,  0.000,  0.000,  6,  1.02125,  -112.8292,  'NEW BRAU',  22.000,  22
6304,  2,  149.901,  -2.182,  0.000,  0.000,  6,  1.01807,  -111.5569,  'NEW BRAU',  22.000,  22
6305,  2,  125.965,  -1.116,  0.000,  0.000,  6,  1.01697,  -111.1170,  'NEW BRAU',  22.000,  22
6341,  1,  133.469,  -23.730,  0.000,  0.000,  6,  0.99372,  -110.6874,  'CHAPPELL',  115.00,  25
6349,  2,  1925.468,  -30.308,  0.000,  0.000,  6,  1.03821,  -117.5352,  'AUSTIN 1',  500.00,  23
7002,  1,  0.000,  0.000,  0.000,  0.000,  7,  1.03247,  -93.5494,  'PASADENA',  500.00,  4
7003,  1,  0.000,  0.000,  0.000,  0.000,  7,  1.02212,  -96.9205,  'PASADENA',  230.00,  4
7004,  1,  0.000,  0.000,  0.000,  0.000,  7,  1.01855,  -100.8386,  'PASADENA',  115.00,  4
7005,  2,  0.000,  0.000,  0.000,  0.000,  7,  1.04000,  -91.6912,  'PASADENA',  13.800,  4
7006,  2,  0.000,  0.000,  0.000,  0.000,  7,  1.04000,  -92.4930,  'PASADENA',  13.800,  4
7007,  2,  0.000,  0.000,  0.000,  0.000,  7,  1.04000,  -91.9588,  'PASADENA',  13.800,  4
7008,  2,  0.000,  0.000,  0.000,  0.000,  7,  1.04000,  -91.8781,  'PASADENA',  13.800,  4
7009,  2,  0.000,  0.000,  0.000,  0.000,  7,  1.04000,  -91.6879,  'PASADENA',  13.800,  4
7010,  1,  0.000,  0.000,  0.000,  0.000,  7,  0.98159,  -109.8734,  'PRAIRIE ',  115.00,  5
7011,  1,  0.000,  0.000,  0.000,  0.000,  7,  1.02573,  -107.3240,  'CONROE 1',  115.00,  5
7012,  1,  0.000,  0.000,  0.000,  0.000,  7,  0.97005,  -105.3148,  'SIMONTON',  115.00,  3
7013,  1,  0.000,  0.000,  0.000,  0.000,  7,  1.00296,  -106.5085,  'HOUSTON ',  115.00,  5
7014,  1,  0.000,  0.000,  0.000,  0.000,  7,  0.99769,  -104.5121,  'HOUSTON ',  115.00,  4
7015,  2,  0.000,  0.000,  0.000,  0.000,  7,  0.99769,  -104.5121,  'HOUSTON ',  18.000,  4
7016,  1,  0.000,  0.000,  0.000,  0.000,  7,  1.00868,  -102.1094,  'HOUSTON ',  115.00,  4
7017,  1,  0.000,  0.000,  0.000,  0.000,  7,  1.00345,  -105.4720,  'HOUSTON ',  115.00,  3
7026,  1,  0.000,  0.000,  0.000,  0.000,  7,  1.01642,  -101.5888,  'BACLIFF ',  115.00,  4
7027,  1,  0.000,  0.000,  0.000,  0.000,  7,  1.00390,  -105.6251,  'SPRING 1',  115.00,  5
7028,  1,  0.104,  -499.051,  0.000,  0.000,  7,  1.01785,  -104.9011,  'HOUSTON ',  115.00,  3
7035,  1,  0.000,  0.000,  0.000,  0.000,  7,  1.01893,  -102.9117,  'CONROE 5',  230.00,  5
7036,  1,  0.000,  0.000,  0.000,  0.000,  7,  1.00974,  -105.0019,  'CONROE 5',  115.00,  5
7037,  1,  0.000,  0.000,  0.000,  0.000,  7,  1.02123,  -98.2160,  'SUGAR LA',  500.00,  3
7038,  1,  0.000,  0.000,  0.000,  0.000,  7,  1.00797,  -99.5996,  'SUGAR LA',  230.00,  3
7039,  1,  0.000,  0.000,  0.000,  0.000,  7,  1.00325,  -103.3463,  'SUGAR LA',  115.00,  3
7040,  1,  0.000,  0.000,  0.000,  0.000,  7,  1.02115,  -97.7400,  'DAYTON 0',  230.00,  4
7041,  1,  0.000,  0.000,  0.000,  0.000,  7,  1.01387,  -100.9917,  'DAYTON 1',  115.00,  4
7045,  2,  101.768,  -11.457,  0.000,  0.000,  7,  0.97463,  -100.2910,  'VICTORIA',  20.000,  6
7046,  2,  122.407,  -12.026,  0.000,  0.000,  7,  0.96446,  -101.1513,  'VICTORIA',  20.000,  6
7047,  1,  0.000,  0.000,  0.000,  0.000,  7,  1.01983,  -98.8855,  'KATY 1 0',  500.00,  3
7048,  1,  0.000,  0.000,  0.000,  0.000,  7,  1.00991,  -100.6321,  'KATY 1 1',  230.00,  3
7049,  1,  0.000,  0.000,  0.000,  0.000,  7,  1.00846,  -104.8880,  'KATY 1 2',  115.00,  3
7050,  1,  0.000,  0.000,  0.000,  0.000,  7,  0.99186,  -108.7318,  'MAGNOLIA',  115.00,  5
7051,  1,  0.000,  0.000,  0.000,  0.000,  7,  1.00227,  -105.4717,  'HOUSTON ',  115.00,  3
7052,  1,  0.000,  0.000,  0.000,  0.000,  7,  1.00330,  -103.7177,  'MISSOURI',  115.00,  3
7053,  1,  0.000,  0.000,  0.000,  0.000,  7,  1.00941,  -99.8520,  'RICHMOND',  115.00,  3
7054,  1,  0.000,  0.000,  0.000,  0.000,  7,  0.99508,  -105.2469,  'HOUSTON ',  115.00,  4
7055,  1,  0.000,  0.000,  0.000,  0.000,  7,  1.00348,  -103.4793,  'HOUSTON ',  115.00,  3
7056,  1,  0.000,  0.000,  0.000,  0.000,  7,  1.01264,  -102.6589,  'SPRING 8',  230.00,  5
7057,  1,  0.000,  0.000,  0.000,  0.000,  7,  0.99873,  -106.3920,  'SPRING 8',  115.00,  5
7058,  1,  181.331,  -24.990,  0.000,  0.000,  7,  0.92195,  -96.0959,  'POINT CO',  500.00,  6
7061,  2,  0.000,  0.000,  0.000,  0.000,  7,  0.93728,  -95.0253,  'POINT CO',  13.800,  6
7062,  2,  0.000,  0.000,  0.000,  0.000,  7,  0.93602,  -95.1168,  'POINT CO',  13.800,  6
7063,  2,  0.000,  0.000,  0.000,  0.000,  7,  0.93716,  -95.0428,  'POINT CO',  13.800,  6
7064,  2,  0.000,  0.000,  0.000,  0.000,  7,  0.93357,  -95.2813,  'POINT CO',  13.800,  6
7065,  2,  0.000,  0.000,  0.000,  0.000,  7,  0.93479,  -95.2063,  'POINT CO',  13.800,  6
7066,  2,  0.000,  0.000,  0.000,  0.000,  7,  0.93571,  -95.1391,  'POINT CO',  13.800,  6
7067,  1,  0.000,  0.000,  0.000,  0.000,  7,  0.98813,  -106.9936,  'HOUSTON ',  115.00,  3
7068,  1,  0.000,  0.000,  0.000,  0.000,  7,  0.94500,  -96.6141,  'EL CAMPO',  230.00,  1
7069,  1,  0.000,  0.000,  0.000,  0.000,  7,  0.94788,  -100.2992,  'EL CAMPO',  115.00,  1
7070,  1,  0.000,  0.000,  0.000,  0.000,  7,  1.00172,  -102.6815,  'HOUSTON ',  115.00,  4
7072,  1,  0.000,  0.000,  0.000,  0.000,  7,  1.01178,  -101.1764,  'DICKINSO',  115.00,  4
...
 0 /End of Bus data, Begin Generator data
1048,  '1',  279.670,  32.434,  165.530,  -36.100,  1.00000,  0,  390.240,  0.00000,  0.10170,  0.00000,  0.00000,  1.00000,  1,  100.0,  325.200,  97.560
1049,  '1',  279.670,  52.657,  165.530,  -36.100,  1.00000,  0,  390.240,  0.00000,  0.13490,  0.00000,  0.00000,  1.00000,  1,  100.0,  325.200,  97.560
1053,  '1',  128.740,  -19.850,  91.010,  -19.850,  1.00000,  0,  214.560,  0.00000,  0.16870,  0.00000,  0.00000,  1.00000,  1,  100.0,  178.800,  53.640
1072,  '1',  159.742,  2.588,  97.800,  -21.330,  1.01000,  0,  230.560,  0.00000,  0.30820,  0.00000,  0.00000,  1.00000,  1,  100.0,  192.130,  57.640
1073,  '1',  138.330,  -0.377,  97.800,  -21.330,  1.01000,  0,  230.560,  0.00000,  0.19480,  0.00000,  0.00000,  1.00000,  1,  100.0,  192.130,  57.640
1074,  '1',  138.330,  6.535,  97.800,  -21.330,  1.01000,  0,  230.560,  0.00000,  0.20960,  0.00000,  0.00000,  1.00000,  1,  100.0,  192.130,  57.640
1075,  '1',  138.330,  5.689,  97.800,  -21.330,  1.01000,  0,  230.560,  0.00000,  0.12370,  0.00000,  0.00000,  1.00000,  1,  100.0,  192.130,  57.640
1076,  '1',  138.330,  3.690,  97.800,  -21.330,  1.01000,  0,  230.560,  0.00000,  0.10660,  0.00000,  0.00000,  1.00000,  1,  100.0,  192.130,  57.640
1077,  '1',  138.330,  5.217,  97.800,  -21.330,  1.01000,  0,  230.560,  0.00000,  0.15380,  0.00000,  0.00000,  1.00000,  1,  100.0,  192.130,  57.640
1081,  '1',  246.390,  -5.283,  145.830,  -31.800,  1.01000,  0,  343.800,  0.00000,  0.14960,  0.00000,  0.00000,  1.00000,  1,  100.0,  286.500,  85.950
2004,  '1',  117.540,  -22.697,  199.430,  -43.490,  1.02000,  0,  470.160,  0.00000,  0.10640,  0.00000,  0.00000,  1.00000,  1,  100.0,  391.800,  117.540
2005,  '1',  117.540,  -19.861,  199.430,  -43.490,  1.02000,  0,  470.160,  0.00000,  0.22750,  0.00000,  0.00000,  1.00000,  1,  100.0,  391.800,  117.540
2006,  '1',  117.540,  -11.792,  199.430,  -43.490,  1.02000,  0,  470.160,  0.00000,  0.20040,  0.00000,  0.00000,  1.00000,  1,  100.0,  391.800,  117.540
2024,  '1',  120.000,  -12.714,  84.830,  -18.500,  1.02000,  0,  200.000,  0.00000,  0.15080,  0.00000,  0.00000,  1.00000,  1,  100.0,  166.670,  50.000
2057,  '1',  309.265,  -237.283,  335.520,  -87.840,  0.99000,  0,  864.000,  0.00000,  0.17700,  0.00000,  0.00000,  1.00000,  1,  100.0,  720.000,  216.000
2100,  '1',  35.761,  -21.600,  31.950,  -21.600,  1.02000,  0,  180.000,  0.00000,  1.00000,  0.00000,  0.00000,  1.00000,  1,  100.0,  150.000,  45.000
2103,  '1',  80.320,  -29.720,  136.280,  -29.720,  1.00000,  0,  321.280,  0.00000,  0.33430,  0.00000,  0.00000,  1.00000,  1,  100.0,  267.730,  80.320
2104,  '1',  80.320,  -29.720,  136.280,  -29.720,  1.00000,  0,  321.280,  0.00000,  0.31470,  0.00000,  0.00000,  1.00000,  1,  100.0,  267.730,  80.320
2105,  '1',  80.320,  -29.720,  136.280,  -29.720,  1.00000,  0,  321.280,  0.00000,  0.14160,  0.00000,  0.00000,  1.00000,  1,  100.0,  267.730,  80.320
2115,  '1',  133.000,  -20.500,  94.020,  -20.500,  1.00000,  0,  221.660,  0.00000,  0.14250,  0.00000,  0.00000,  1.00000,  1,  100.0,  184.720,  55.410
2116,  '1',  133.000,  -20.500,  94.020,  -20.500,  1.00000,  0,  221.660,  0.00000,  0.18690,  0.00000,  0.00000,  1.00000,  1,  100.0,  184.720,  55.410
2117,  '1',  133.000,  -20.500,  94.020,  -20.500,  1.00000,  0,  221.660,  0.00000,  0.32540,  0.00000,  0.00000,  1.00000,  1,  100.0,  184.720,  55.410
2118,  '1',  133.000,  -20.500,  94.020,  -20.500,  1.00000,  0,  221.660,  0.00000,  0.10610,  0.00000,  0.00000,  1.00000,  1,  100.0,  184.720,  55.410
2119,  '1',  133.000,  -20.500,  94.020,  -20.500,  1.00000,  0,  221.660,  0.00000,  0.13600,  0.00000,  0.00000,  1.00000,  1,  100.0,  184.720,  55.410
2120,  '1',  133.000,  -20.500,  94.020,  -20.500,  1.01000,  0,  221.660,  0.00000,  0.20680,  0.00000,  0.00000,  1.00000,  1,  100.0,  184.720,  55.410
3028,  '1',  30.475,  14.551,  42.600,  -28.800,  1.04000,  0,  240.000,  0.00000,  1.00000,  0.00000,  0.00000,  1.00000,  1,  100.0,  200.000,  60.000
3045,  '1',  259.260,  17.626,  227.520,  -49.620,  1.04000,  0,  536.400,  0.00000,  0.14470,  0.00000,  0.00000,  1.00000,  1,  100.0,  447.000,  134.100
3106,  '1',  33.596,  -10.809,  62.477,  -2.690,  1.00000,  0,  65.880,  0.00000,  0.29220,  0.00000,  0.00000,  1.00000,  1,  100.0,  162.800,  0.000
4026,  '1',  123.000,  89.266,  191.060,  -50.020,  1.03000,  0,  492.000,  0.00000,  0.32770,  0.00000,  0.00000,  1.00000,  1,  100.0,  410.000,  123.000
4030,  '1',  184.471,  292.806,  290.040,  -75.930,  1.01000,  0,  746.880,  0.00000,  0.27970,  0.00000,  0.00000,  1.00000,  1,  100.0,  622.400,  186.720
4047,  '1',  43.602,  5.251,  75.102,  -3.230,  1.02000,  0,  79.200,  0.00000,  0.32270,  0.00000,  0.00000,  1.00000,  1,  100.0,  195.700,  0.000
4058,  '1',  103.680,  33.320,  73.300,  -15.980,  1.03000,  0,  172.800,  0.00000,  0.13700,  0.00000,  0.00000,  1.00000,  1,  100.0,  144.000,  43.200
4059,  '1',  103.680,  37.071,  73.300,  -15.980,  1.03000,  0,  172.800,  0.00000,  0.15140,  0.00000,  0.00000,  1.00000,  1,  100.0,  144.000,  43.200
4060,  '1',  103.680,  24.386,  73.300,  -15.980,  1.03000,  0,  172.800,  0.00000,  0.13940,  0.00000,  0.00000,  1.00000,  1,  100.0,  144.000,  43.200
4061,  '1',  124.080,  34.271,  87.720,  -19.130,  1.03000,  0,  206.800,  0.00000,  0.21560,  0.00000,  0.00000,  1.00000,  1,  100.0,  172.330,  51.700
4062,  '1',  124.080,  26.887,  87.720,  -19.130,  1.03000,  0,  206.800,  0.00000,  0.25930,  0.00000,  0.00000,  1.00000,  1,  100.0,  172.330,  51.700
4063,  '1',  124.080,  35.380,  87.720,  -19.130,  1.03000,  0,  206.800,  0.00000,  0.14410,  0.00000,  0.00000,  1.00000,  1,  100.0,  172.330,  51.700
4082,  '1',  209.320,  38.970,  123.890,  -27.020,  1.04000,  0,  292.080,  0.00000,  0.13810,  0.00000,  0.00000,  1.00000,  1,  100.0,  243.400,  73.020
4083,  '1',  209.320,  41.048,  123.890,  -27.020,  1.04000,  0,  292.080,  0.00000,  0.15700,  0.00000,  0.00000,  1.00000,  1,  100.0,  243.400,  73.020
4084,  '1',  209.320,  68.954,  123.890,  -27.020,  1.04000,  0,  292.080,  0.00000,  0.19110,  0.00000,  0.00000,  1.00000,  1,  100.0,  243.400,  73.020
4085,  '1',  352.000,  81.946,  179.170,  -39.070,  1.04000,  0,  422.400,  0.00000,  0.31920,  0.00000,  0.00000,  1.00000,  1,  100.0,  352.000,  105.600
4115,  '1',  39.540,  37.483,  67.090,  -14.630,  1.04000,  0,  158.160,  0.00000,  0.11310,  0.00000,  0.00000,  1.00000,  1,  100.0,  131.800,  39.540
4116,  '1',  39.540,  35.238,  67.090,  -14.630,  1.04000,  0,  158.160,  0.00000,  0.15150,  0.00000,  0.00000,  1.00000,  1,  100.0,  131.800,  39.540
4160,  '1',  142.390,  85.525,  100.660,  -21.950,  1.03000,  0,  237.320,  0.00000,  0.18820,  0.00000,  0.00000,  1.00000,  1,  100.0,  197.770,  59.330
4161,  '1',  142.390,  38.888,  100.660,  -21.950,  1.03000,  0,  237.320,  0.00000,  0.12390,  0.00000,  0.00000,  1.00000,  1,  100.0,  197.770,  59.330
4162,  '1',  142.390,  36.205,  100.660,  -21.950,  1.03000,  0,  237.320,  0.00000,  0.17220,  0.00000,  0.00000,  1.00000,  1,  100.0,  197.770,  59.330
4181,  '1',  30.489,  42.620,  42.620,  -28.810,  1.04000,  0,  240.120,  0.00000,  1.00000,  0.00000,  0.00000,  1.00000,  1,  100.0,  200.100,  60.030
4192,  '1',  1085.790,  114.776,  688.320,  -150.120,  1.02000,  0,  1622.76,  0.00000,  0.14340,  0.00000,  0.00000,  1.00000,  1,  100.0,  1352.31,  405.690
5037,  '1',  308.470,  -16.490,  157.010,  -34.240,  1.02000,  0,  370.160,  0.00000,  0.29910,  0.00000,  0.00000,  1.00000,  1,  100.0,  308.470,  92.540
5038,  '1',  308.470,  -15.138,  157.010,  -34.240,  1.02000,  0,  370.160,  0.00000,  0.12330,  0.00000,  0.00000,  1.00000,  1,  100.0,  308.470,  92.540
5039,  '1',  308.470,  -34.240,  157.010,  -34.240,  1.02000,  0,  370.160,  0.00000,  0.21470,  0.00000,  0.00000,  1.00000,  1,  100.0,  308.470,  92.540
5040,  '1',  308.470,  -11.810,  157.010,  -34.240,  1.02000,  0,  370.160,  0.00000,  0.19240,  0.00000,  0.00000,  1.00000,  1,  100.0,  308.470,  92.540
5041,  '1',  308.470,  -19.875,  157.010,  -34.240,  1.02000,  0,  370.160,  0.00000,  0.11590,  0.00000,  0.00000,  1.00000,  1,  100.0,  308.470,  92.540
5042,  '1',  308.470,  -13.331,  157.010,  -34.240,  1.02000,  0,  370.160,  0.00000,  0.19130,  0.00000,  0.00000,  1.00000,  1,  100.0,  308.470,  92.540
5057,  '1',  317.350,  -35.230,  161.530,  -35.230,  1.00000,  0,  380.820,  0.00000,  0.19130,  0.00000,  0.00000,  1.00000,  1,  100.0,  317.350,  95.200
5058,  '1',  317.350,  -35.230,  161.530,  -35.230,  1.00000,  0,  380.820,  0.00000,  0.29820,  0.00000,  0.00000,  1.00000,  1,  100.0,  317.350,  95.200
5067,  '1',  438.270,  34.085,  223.080,  -48.650,  1.03000,  0,  525.920,  0.00000,  0.32610,  0.00000,  0.00000,  1.00000,  1,  100.0,  438.270,  131.480
5068,  '1',  438.270,  31.084,  223.080,  -48.650,  1.03000,  0,  525.920,  0.00000,  0.11690,  0.00000,  0.00000,  1.00000,  1,  100.0,  438.270,  131.480
5069,  '1',  438.270,  29.025,  223.080,  -48.650,  1.03000,  0,  525.920,  0.00000,  0.10560,  0.00000,  0.00000,  1.00000,  1,  100.0,  438.270,  131.480
5166,  '1',  91.080,  39.324,  64.390,  -14.040,  1.04000,  0,  151.800,  0.00000,  0.13910,  0.00000,  0.00000,  1.00000,  1,  100.0,  126.500,  37.950
5206,  '1',  248.670,  -27.600,  126.570,  -27.600,  1.01000,  0,  298.400,  0.00000,  0.11980,  0.00000,  0.00000,  1.00000,  1,  100.0,  248.670,  74.600
5207,  '1',  248.670,  -27.600,  126.570,  -27.600,  1.01000,  0,  298.400,  0.00000,  0.18090,  0.00000,  0.00000,  1.00000,  1,  100.0,  248.670,  74.600
5208,  '1',  248.670,  -27.600,  126.570,  -27.600,  1.01000,  0,  298.400,  0.00000,  0.10560,  0.00000,  0.00000,  1.00000,  1,  100.0,  248.670,  74.600
5238,  '1',  34.285,  -32.400,  47.930,  -32.400,  1.00000,  0,  270.000,  0.00000,  1.00000,  0.00000,  0.00000,  1.00000,  1,  100.0,  225.000,  67.500
5262,  '1',  1215.000,  -74.330,  447.120,  -99.630,  1.01000,  0,  1458.00,  0.00000,  0.26310,  0.00000,  0.00000,  1.00000,  1,  100.0,  1215.00,  364.500
5263,  '1',  1215.000,  -99.630,  447.120,  -99.630,  1.01000,  0,  1458.00,  0.00000,  0.16260,  0.00000,  0.00000,  1.00000,  1,  100.0,  1215.00,  364.500
5281,  '1',  192.770,  -29.720,  136.280,  -29.720,  1.00000,  0,  321.280,  0.00000,  0.10660,  0.00000,  0.00000,  1.00000,  1,  100.0,  267.730,  80.320
5282,  '1',  192.770,  -29.720,  136.280,  -29.720,  1.00000,  0,  321.280,  0.00000,  0.23940,  0.00000,  0.00000,  1.00000,  1,  100.0,  267.730,  80.320
5283,  '1',  192.760,  -29.720,  136.280,  -29.720,  1.00000,  0,  321.280,  0.00000,  0.10650,  0.00000,  0.00000,  1.00000,  1,  100.0,  267.730,  80.320
5298,  '1',  66.700,  58.530,  58.530,  -12.760,  1.04000,  0,  138.000,  0.00000,  0.13260,  0.00000,  0.00000,  1.00000,  1,  100.0,  115.000,  34.500
5299,  '1',  66.700,  48.997,  58.530,  -12.760,  1.04000,  0,  138.000,  0.00000,  0.32280,  0.00000,  0.00000,  1.00000,  1,  100.0,  115.000,  34.500
5300,  '1',  66.700,  58.530,  58.530,  -12.760,  1.04000,  0,  138.000,  0.00000,  0.21910,  0.00000,  0.00000,  1.00000,  1,  100.0,  115.000,  34.500
5302,  '1',  398.830,  68.701,  236.050,  -51.480,  1.04000,  0,  556.500,  0.00000,  0.13300,  0.00000,  0.00000,  1.00000,  1,  100.0,  463.750,  139.130
5303,  '1',  398.830,  88.294,  236.050,  -51.480,  1.04000,  0,  556.500,  0.00000,  0.17920,  0.00000,  0.00000,  1.00000,  1,  100.0,  463.750,  139.130
5319,  '1',  189.220,  -29.170,  133.770,  -29.170,  1.01000,  0,  315.360,  0.00000,  0.25070,  0.00000,  0.00000,  1.00000,  1,  100.0,  262.800,  78.840
5320,  '1',  189.220,  -28.364,  133.770,  -29.170,  1.01000,  0,  315.360,  0.00000,  0.28140,  0.00000,  0.00000,  1.00000,  1,  100.0,  262.800,  78.840
5321,  '1',  189.220,  -29.170,  133.770,  -29.170,  1.01000,  0,  315.360,  0.00000,  0.12810,  0.00000,  0.00000,  1.00000,  1,  100.0,  262.800,  78.840
5324,  '1',  284.070,  63.315,  144.590,  -31.530,  1.04000,  0,  340.880,  0.00000,  0.21670,  0.00000,  0.00000,  1.00000,  1,  100.0,  284.070,  85.220
5325,  '1',  284.070,  65.377,  144.590,  -31.530,  1.04000,  0,  340.880,  0.00000,  0.15030,  0.00000,  0.00000,  1.00000,  1,  100.0,  284.070,  85.220
5326,  '1',  284.070,  144.590,  144.590,  -31.530,  1.04000,  0,  340.880,  0.00000,  0.18810,  0.00000,  0.00000,  1.00000,  1,  100.0,  284.070,  85.220
5343,  '1',  46.231,  25.228,  79.667,  -3.430,  1.04000,  0,  84.000,  0.00000,  0.24140,  0.00000,  0.00000,  1.00000,  1,  100.0,  207.500,  0.000
5360,  '1',  418.242,  -44.192,  469.730,  -122.980,  1.01000,  0,  1209.60,  0.00000,  0.25510,  0.00000,  0.00000,  1.00000,  1,  100.0,  1008.00,  302.400
5364,  '1',  183.460,  -23.680,  108.590,  -23.680,  1.00000,  0,  256.000,  0.00000,  0.13030,  0.00000,  0.00000,  1.00000,  1,  100.0,  213.330,  64.000
5365,  '1',  183.460,  -23.680,  108.590,  -23.680,  1.00000,  0,  256.000,  0.00000,  0.11650,  0.00000,  0.00000,  1.00000,  1,  100.0,  213.330,  64.000
5366,  '1',  183.460,  -23.680,  108.590,  -23.680,  1.00000,  0,  256.000,  0.00000,  0.15490,  0.00000,  0.00000,  1.00000,  1,  100.0,  213.330,  64.000
5367,  '1',  183.460,  -23.680,  108.590,  -23.680,  1.00000,  0,  256.000,  0.00000,  0.10020,  0.00000,  0.00000,  1.00000,  1,  100.0,  213.330,  64.000
5368,  '1',  183.460,  -23.680,  108.590,  -23.680,  1.00000,  0,  256.000,  0.00000,  0.36180,  0.00000,  0.00000,  1.00000,  1,  100.0,  213.330,  64.000
5369,  '1',  183.460,  -23.680,  108.590,  -23.680,  1.00000,  0,  256.000,  0.00000,  0.24440,  0.00000,  0.00000,  1.00000,  1,  100.0,  213.330,  64.000
5382,  '1',  209.000,  106.380,  106.380,  -23.200,  1.04000,  0,  250.800,  0.00000,  0.24770,  0.00000,  0.00000,  1.00000,  1,  100.0,  209.000,  62.700
5383,  '1',  209.000,  101.577,  106.380,  -23.200,  1.04000,  0,  250.800,  0.00000,  0.39820,  0.00000,  0.00000,  1.00000,  1,  100.0,  209.000,  62.700
5415,  '1',  70.760,  -13.540,  62.100,  -13.540,  1.00000,  0,  146.400,  0.00000,  0.14030,  0.00000,  0.00000,  1.00000,  1,  100.0,  122.000,  36.600
5416,  '1',  70.760,  -13.540,  62.100,  -13.540,  1.00000,  0,  146.400,  0.00000,  0.26480,  0.00000,  0.00000,  1.00000,  1,  100.0,  122.000,  36.600
5417,  '1',  70.760,  -13.540,  62.100,  -13.540,  1.00000,  0,  146.400,  0.00000,  0.16960,  0.00000,  0.00000,  1.00000,  1,  100.0,  122.000,  36.600
5418,  '1',  68.900,  -13.190,  60.470,  -13.190,  1.00000,  0,  142.560,  0.00000,  0.34000,  0.00000,  0.00000,  1.00000,  1,  100.0,  118.800,  35.640
5419,  '1',  68.900,  -13.190,  60.470,  -13.190,  1.00000,  0,  142.560,  0.00000,  0.16420,  0.00000,  0.00000,  1.00000,  1,  100.0,  118.800,  35.640
5444,  '1',  1412.380,  -223.840,  1026.440,  -223.840,  1.01000,  0,  2419.92,  0.00000,  0.34260,  0.00000,  0.00000,  1.00000,  1,  100.0,  2016.60,  604.980
6006,  '1',  183.180,  37.869,  108.420,  -23.640,  1.04000,  0,  255.600,  0.00000,  0.18770,  0.00000,  0.00000,  1.00000,  1,  100.0,  213.000,  63.900
6007,  '1',  426.000,  61.523,  216.830,  -47.290,  1.04000,  0,  511.200,  0.00000,  0.13420,  0.00000,  0.00000,  1.00000,  1,  100.0,  426.000,  127.800
6008,  '1',  142.800,  33.398,  100.950,  -22.010,  1.04000,  0,  238.000,  0.00000,  0.20160,  0.00000,  0.00000,  1.00000,  1,  100.0,  198.330,  59.500
6009,  '1',  142.800,  20.600,  100.950,  -22.010,  1.04000,  0,  238.000,  0.00000,  0.18430,  0.00000,  0.00000,  1.00000,  1,  100.0,  198.330,  59.500
6010,  '1',  142.800,  27.817,  100.950,  -22.010,  1.04000,  0,  238.000,  0.00000,  0.15620,  0.00000,  0.00000,  1.00000,  1,  100.0,  198.330,  59.500
6042,  '1',  71.340,  19.166,  122.908,  -5.290,  1.04000,  0,  129.600,  0.00000,  0.18770,  0.00000,  0.00000,  1.00000,  1,  100.0,  320.200,  0.000
6069,  '1',  130.590,  24.086,  92.320,  -20.130,  1.03000,  0,  217.640,  0.00000,  0.22480,  0.00000,  0.00000,  1.00000,  1,  100.0,  181.370,  54.410
6070,  '1',  130.590,  10.977,  92.320,  -20.130,  1.03000,  0,  217.640,  0.00000,  0.24660,  0.00000,  0.00000,  1.00000,  1,  100.0,  181.370,  54.410
6071,  '1',  130.590,  31.257,  92.320,  -20.130,  1.03000,  0,  217.640,  0.00000,  0.15280,  0.00000,  0.00000,  1.00000,  1,  100.0,  181.370,  54.410
6072,  '1',  130.590,  13.395,  92.320,  -20.130,  1.03000,  0,  217.640,  0.00000,  0.19250,  0.00000,  0.00000,  1.00000,  1,  100.0,  181.370,  54.410
6073,  '1',  130.590,  18.431,  92.320,  -20.130,  1.03000,  0,  217.640,  0.00000,  0.14260,  0.00000,  0.00000,  1.00000,  1,  100.0,  181.370,  54.410
6074,  '1',  130.590,  17.752,  92.320,  -20.130,  1.03000,  0,  217.640,  0.00000,  0.11150,  0.00000,  0.00000,  1.00000,  1,  100.0,  181.370,  54.410
6078,  '1',  169.000,  9.863,  262.510,  -68.730,  1.00000,  0,  676.000,  0.00000,  0.28900,  0.00000,  0.00000,  1.00000,  1,  100.0,  563.330,  169.000
6079,  '1',  169.000,  20.569,  262.510,  -68.730,  1.00000,  0,  676.000,  0.00000,  0.25330,  0.00000,  0.00000,  1.00000,  1,  100.0,  563.330,  169.000
6080,  '1',  169.000,  15.779,  262.510,  -68.730,  1.00000,  0,  676.000,  0.00000,  0.32510,  0.00000,  0.00000,  1.00000,  1,  100.0,  563.330,  169.000
6106,  '1',  70.180,  61.590,  61.590,  -13.430,  1.04000,  0,  145.200,  0.00000,  0.12010,  0.00000,  0.00000,  1.00000,  1,  100.0,  121.000,  36.300
6110,  '1',  177.180,  80.958,  275.220,  -72.050,  1.04000,  0,  708.720,  0.00000,  0.16800,  0.00000,  0.00000,  1.00000,  1,  100.0,  590.600,  177.180
6111,  '1',  198.450,  81.970,  308.260,  -80.700,  1.04000,  0,  793.800,  0.00000,  0.21900,  0.00000,  0.00000,  1.00000,  1,  100.0,  661.500,  198.450
6145,  '1',  446.000,  35.078,  227.010,  -49.510,  1.03000,  0,  535.200,  0.00000,  0.14770,  0.00000,  0.00000,  1.00000,  1,  100.0,  446.000,  133.800
6146,  '1',  446.000,  35.935,  227.010,  -49.510,  1.03000,  0,  535.200,  0.00000,  0.11950,  0.00000,  0.00000,  1.00000,  1,  100.0,  446.000,  133.800
6147,  '1',  288.112,  31.938,  474.390,  -103.450,  1.03000,  0,  1118.40,  0.00000,  0.10440,  0.00000,  0.00000,  1.00000,  1,  100.0,  932.000,  279.600
6148,  '1',  418.800,  50.508,  367.500,  -80.140,  1.03000,  0,  866.400,  0.00000,  0.23830,  0.00000,  0.00000,  1.00000,  1,  100.0,  722.000,  216.600
6149,  '1',  418.760,  94.698,  367.500,  -80.140,  1.03000,  0,  866.400,  0.00000,  0.12770,  0.00000,  0.00000,  1.00000,  1,  100.0,  722.000,  216.600
6164,  '1',  202.140,  45.988,  119.640,  -26.090,  1.03000,  0,  282.060,  0.00000,  0.30070,  0.00000,  0.00000,  1.00000,  1,  100.0,  235.050,  70.520
6165,  '1',  202.140,  40.635,  119.640,  -26.090,  1.03000,  0,  282.060,  0.00000,  0.18390,  0.00000,  0.00000,  1.00000,  1,  100.0,  235.050,  70.520
6166,  '1',  202.140,  95.590,  119.640,  -26.090,  1.03000,  0,  282.060,  0.00000,  0.25100,  0.00000,  0.00000,  1.00000,  1,  100.0,  235.050,  70.520
6167,  '1',  202.140,  51.931,  119.640,  -26.090,  1.03000,  0,  282.060,  0.00000,  0.13970,  0.00000,  0.00000,  1.00000,  1,  100.0,  235.050,  70.520
6213,  '1',  39.636,  6.654,  68.286,  -2.940,  1.04000,  0,  72.000,  0.00000,  0.33650,  0.00000,  0.00000,  1.00000,  1,  100.0,  177.900,  0.000
6214,  '1',  123.051,  11.197,  212.059,  -9.130,  1.04000,  0,  223.600,  0.00000,  0.21900,  0.00000,  0.00000,  1.00000,  1,  100.0,  552.300,  0.000
6215,  '1',  123.051,  42.374,  212.059,  -9.130,  1.04000,  0,  223.600,  0.00000,  0.20110,  0.00000,  0.00000,  1.00000,  1,  100.0,  552.300,  0.000
6216,  '1',  123.051,  18.896,  212.059,  -9.130,  1.04000,  0,  223.600,  0.00000,  0.37760,  0.00000,  0.00000,  1.00000,  1,  100.0,  552.300,  0.000
6243,  '1',  157.380,  74.820,  93.150,  -20.310,  1.04000,  0,  219.600,  0.00000,  0.28800,  0.00000,  0.00000,  1.00000,  1,  100.0,  183.000,  54.900
6244,  '1',  298.000,  90.469,  151.680,  -33.080,  1.04000,  0,  357.600,  0.00000,  0.12500,  0.00000,  0.00000,  1.00000,  1,  100.0,  298.000,  89.400
6245,  '1',  298.000,  105.424,  151.680,  -33.080,  1.04000,  0,  357.600,  0.00000,  0.24960,  0.00000,  0.00000,  1.00000,  1,  100.0,  298.000,  89.400
6246,  '1',  298.000,  151.680,  151.680,  -33.080,  1.04000,  0,  357.600,  0.00000,  0.16990,  0.00000,  0.00000,  1.00000,  1,  100.0,  298.000,  89.400
6247,  '1',  157.660,  93.320,  93.320,  -20.350,  1.04000,  0,  220.000,  0.00000,  0.11730,  0.00000,  0.00000,  1.00000,  1,  100.0,  183.330,  55.000
6248,  '1',  157.660,  82.828,  93.320,  -20.350,  1.04000,  0,  220.000,  0.00000,  0.27550,  0.00000,  0.00000,  1.00000,  1,  100.0,  183.330,  55.000
6249,  '1',  157.660,  57.010,  93.320,  -20.350,  1.04000,  0,  220.000,  0.00000,  0.17480,  0.00000,  0.00000,  1.00000,  1,  100.0,  183.330,  55.000
6257,  '1',  139.680,  -21.530,  98.750,  -21.530,  1.02000,  0,  232.800,  0.00000,  0.15520,  0.00000,  0.00000,  1.00000,  1,  100.0,  194.000,  58.200
6258,  '1',  139.680,  -21.530,  98.750,  -21.530,  1.02000,  0,  232.800,  0.00000,  0.26310,  0.00000,  0.00000,  1.00000,  1,  100.0,  194.000,  58.200
6260,  '1',  221.020,  -28.530,  130.810,  -28.530,  1.02000,  0,  308.400,  0.00000,  0.11970,  0.00000,  0.00000,  1.00000,  1,  100.0,  257.000,  77.100
6295,  '1',  148.490,  -22.890,  104.970,  -22.890,  1.02000,  0,  247.480,  0.00000,  0.21970,  0.00000,  0.00000,  1.00000,  1,  100.0,  206.230,  61.870
6296,  '1',  148.490,  -22.890,  104.970,  -22.890,  1.02000,  0,  247.480,  0.00000,  0.25670,  0.00000,  0.00000,  1.00000,  1,  100.0,  206.230,  61.870
6297,  '1',  148.500,  -22.890,  104.970,  -22.890,  1.02000,  0,  247.480,  0.00000,  0.14170,  0.00000,  0.00000,  1.00000,  1,  100.0,  206.230,  61.900
6302,  '1',  212.640,  -27.440,  125.850,  -27.440,  1.00000,  0,  296.700,  0.00000,  0.25960,  0.00000,  0.00000,  1.00000,  1,  100.0,  247.250,  74.180
6303,  '1',  212.640,  -27.440,  125.850,  -27.440,  1.00000,  0,  296.700,  0.00000,  0.27270,  0.00000,  0.00000,  1.00000,  1,  100.0,  247.250,  74.180
6304,  '1',  212.640,  -27.440,  125.850,  -27.440,  1.00000,  0,  296.700,  0.00000,  0.11710,  0.00000,  0.00000,  1.00000,  1,  100.0,  247.250,  74.180
6305,  '1',  212.640,  -27.440,  125.850,  -27.440,  1.00000,  0,  296.700,  0.00000,  0.12770,  0.00000,  0.00000,  1.00000,  1,  100.0,  247.250,  74.180
6349,  '1',  726.000,  369.540,  369.540,  -80.580,  1.04000,  0,  871.200,  0.00000,  0.16290,  0.00000,  0.00000,  1.00000,  1,  100.0,  726.000,  217.800
7005,  '1',  140.180,  31.386,  82.970,  -18.090,  1.04000,  0,  195.600,  0.00000,  0.13000,  0.00000,  0.00000,  1.00000,  1,  100.0,  163.000,  48.900
7006,  '1',  140.180,  55.392,  82.970,  -18.090,  1.04000,  0,  195.600,  0.00000,  0.19150,  0.00000,  0.00000,  1.00000,  1,  100.0,  163.000,  48.900
7007,  '1',  140.180,  36.402,  82.970,  -18.090,  1.04000,  0,  195.600,  0.00000,  0.34300,  0.00000,  0.00000,  1.00000,  1,  100.0,  163.000,  48.900
7008,  '1',  140.180,  34.123,  82.970,  -18.090,  1.04000,  0,  195.600,  0.00000,  0.21570,  0.00000,  0.00000,  1.00000,  1,  100.0,  163.000,  48.900
7009,  '1',  140.180,  30.870,  82.970,  -18.090,  1.04000,  0,  195.600,  0.00000,  0.13060,  0.00000,  0.00000,  1.00000,  1,  100.0,  163.000,  48.900
7015,  '1',  0.000,  0.000,  2.040,  -0.440,  1.04000,  0,  4.800,  0.00000,  0.22520,  0.00000,  0.00000,  1.00000,  0,  100.0,  4.000,  1.200
7045,  '1',  135.680,  95.920,  95.920,  -20.920,  1.03000,  0,  226.140,  0.00000,  0.12400,  0.00000,  0.00000,  1.00000,  1,  100.0,  188.450,  56.530
7046,  '1',  135.680,  95.920,  95.920,  -20.920,  1.03000,  0,  226.140,  0.00000,  0.10650,  0.00000,  0.00000,  1.00000,  1,  100.0,  188.450,  56.530
7061,  '1',  66.640,  58.480,  58.480,  -12.750,  1.00000,  0,  137.880,  0.00000,  0.12410,  0.00000,  0.00000,  1.00000,  1,  100.0,  114.900,  34.470
7062,  '1',  66.640,  58.480,  58.480,  -12.750,  1.00000,  0,  137.880,  0.00000,  0.19500,  0.00000,  0.00000,  1.00000,  1,  100.0,  114.900,  34.470
7063,  '1',  66.640,  58.480,  58.480,  -12.750,  1.00000,  0,  137.880,  0.00000,  0.15790,  0.00000,  0.00000,  1.00000,  1,  100.0,  114.900,  34.470
7064,  '1',  66.640,  58.480,  58.480,  -12.750,  1.00000,  0,  137.880,  0.00000,  0.22800,  0.00000,  0.00000,  1.00000,  1,  100.0,  114.900,  34.470
7065,  '1',  66.640,  58.480,  58.480,  -12.750,  1.00000,  0,  137.880,  0.00000,  0.22800,  0.00000,  0.00000,  1.00000,  1,  100.0,  114.900,  34.470
7066,  '1',  66.640,  58.480,  58.480,  -12.750,  1.00000,  0,  137.880,  0.00000,  0.34800,  0.00000,  0.00000,  1.00000,  1,  100.0,  114.900,  34.470
7079,  '1',  228.650,  27.425,  116.380,  -25.380,  1.04000,  0,  274.380,  0.00000,  0.13630,  0.00000,  0.00000,  1.00000,  1,  100.0,  228.650,  68.590
7080,  '1',  228.650,  22.046,  116.380,  -25.380,  1.04000,  0,  274.380,  0.00000,  0.17160,  0.00000,  0.00000,  1.00000,  1,  100.0,  228.650,  68.590
7081,  '1',  228.650,  22.686,  116.380,  -25.380,  1.04000,  0,  274.380,  0.00000,  0.24350,  0.00000,  0.00000,  1.00000,  1,  100.0,  228.650,  68.590
7082,  '1',  228.650,  26.400,  116.380,  -25.380,  1.04000,  0,  274.380,  0.00000,  0.26430,  0.00000,  0.00000,  1.00000,  1,  100.0,  228.650,  68.590
7098,  '1',  2808.226,  2905.106,  498.380,  -111.050,  1.00000,  0,  3600.00,  0.00000,  0.28190,  0.00000,  0.00000,  1.00000,  1,  100.0,  1354.30,  406.290
7099,  '1',  1354.300,  498.380,  498.380,  -111.050,  1.00000,  0,  1625.16,  0.00000,  0.27430,  0.00000,  0.00000,  1.00000,  1,  100.0,  1354.30,  406.290
7107,  '1',  108.000,  68.280,  76.350,  -16.650,  1.04000,  0,  180.000,  0.00000,  0.29250,  0.00000,  0.00000,  1.00000,  1,  100.0,  150.000,  45.000
7108,  '1',  0.000,  18.528,  25.960,  -5.660,  1.04000,  0,  61.200,  0.00000,  0.13470,  0.00000,  0.00000,  1.00000,  0,  100.0,  51.000,  15.300
7109,  '1',  0.000,  22.506,  25.960,  -5.660,  1.04000,  0,  61.200,  0.00000,  0.17780,  0.00000,  0.00000,  1.00000,  0,  100.0,  51.000,  15.300
7110,  '1',  196.000,  38.602,  99.760,  -21.760,  1.04000,  0,  235.200,  0.00000,  0.13730,  0.00000,  0.00000,  1.00000,  1,  100.0,  196.000,  58.800
7111,  '1',  196.000,  37.631,  99.760,  -21.760,  1.04000,  0,  235.200,  0.00000,  0.19180,  0.00000,  0.00000,  1.00000,  1,  100.0,  196.000,  58.800
7112,  '1',  196.000,  59.229,  99.760,  -21.760,  1.04000,  0,  235.200,  0.00000,  0.17280,  0.00000,  0.00000,  1.00000,  1,  100.0,  196.000,  58.800
7113,  '1',  196.000,  32.326,  99.760,  -21.760,  1.04000,  0,  235.200,  0.00000,  0.16060,  0.00000,  0.00000,  1.00000,  1,  100.0,  196.000,  58.800
7114,  '1',  196.000,  62.738,  99.760,  -21.760,  1.04000,  0,  235.200,  0.00000,  0.20370,  0.00000,  0.00000,  1.00000,  1,  100.0,  196.000,  58.800
7115,  '1',  196.000,  63.098,  99.760,  -21.760,  1.04000,  0,  235.200,  0.00000,  0.17540,  0.00000,  0.00000,  1.00000,  1,  100.0,  196.000,  58.800
7121,  '1',  0.000,  0.000,  1.880,  -0.410,  1.04000,  0,  4.440,  0.00000,  0.10630,  0.00000,  0.00000,  1.00000,  0,  100.0,  3.700,  1.110
7122,  '1',  0.000,  0.000,  2.190,  -0.480,  1.04000,  0,  5.160,  0.00000,  0.14330,  0.00000,  0.00000,  1.00000,  0,  100.0,  4.300,  1.290
7133,  '1',  0.000,  -1.810,  8.300,  -1.810,  1.00000,  0,  19.560,  0.00000,  0.13400,  0.00000,  0.00000,  1.00000,  0,  100.0,  16.300,  4.890
7134,  '1',  206.550,  -22.930,  105.130,  -22.930,  1.00000,  0,  247.860,  0.00000,  0.12450,  0.00000,  0.00000,  1.00000,  1,  100.0,  206.550,  61.970
7135,  '1',  206.550,  -22.930,  105.130,  -22.930,  1.00000,  0,  247.860,  0.00000,  0.10080,  0.00000,  0.00000,  1.00000,  1,  100.0,  206.550,  61.970
7136,  '1',  206.550,  -22.930,  105.130,  -22.930,  1.00000,  0,  247.860,  0.00000,  0.12110,  0.00000,  0.00000,  1.00000,  1,  100.0,  206.550,  61.970
7137,  '1',  206.550,  -22.930,  105.130,  -22.930,  1.00000,  0,  247.860,  0.00000,  0.35250,  0.00000,  0.00000,  1.00000,  1,  100.0,  206.550,  61.970
7138,  '1',  380.700,  -42.260,  193.780,  -42.260,  1.00000,  0,  456.840,  0.00000,  0.12060,  0.00000,  0.00000,  1.00000,  1,  100.0,  380.700,  114.210
7139,  '1',  0.000,  -6.550,  30.030,  -6.550,  1.00000,  0,  70.800,  0.00000,  0.12350,  0.00000,  0.00000,  1.00000,  0,  100.0,  59.000,  17.700
7140,  '1',  0.000,  -6.550,  30.030,  -6.550,  1.00000,  0,  70.800,  0.00000,  0.29730,  0.00000,  0.00000,  1.00000,  0,  100.0,  59.000,  17.700
7141,  '1',  0.000,  -6.550,  30.030,  -6.550,  1.00000,  0,  70.800,  0.00000,  0.23590,  0.00000,  0.00000,  1.00000,  0,  100.0,  59.000,  17.700
7142,  '1',  0.000,  -6.550,  30.030,  -6.550,  1.00000,  0,  70.800,  0.00000,  0.23560,  0.00000,  0.00000,  1.00000,  0,  100.0,  59.000,  17.700
7146,  '1',  0.000,  -1.130,  5.190,  -1.130,  1.01000,  0,  12.240,  0.00000,  0.16660,  0.00000,  0.00000,  1.00000,  0,  100.0,  10.200,  3.060
7162,  '1',  79.630,  56.300,  56.300,  -12.280,  1.04000,  0,  132.720,  0.00000,  0.21300,  0.00000,  0.00000,  1.00000,  1,  100.0,  110.600,  33.180
7163,  '1',  79.630,  53.758,  56.300,  -12.280,  1.04000,  0,  132.720,  0.00000,  0.10860,  0.00000,  0.00000,  1.00000,  1,  100.0,  110.600,  33.180
7164,  '1',  79.630,  56.300,  56.300,  -12.280,  1.04000,  0,  132.720,  0.00000,  0.20360,  0.00000,  0.00000,  1.00000,  1,  100.0,  110.600,  33.180
7165,  '1',  79.630,  56.300,  56.300,  -12.280,  1.04000,  0,  132.720,  0.00000,  0.39190,  0.00000,  0.00000,  1.00000,  1,  100.0,  110.600,  33.180
7166,  '1',  79.630,  45.963,  56.300,  -12.280,  1.04000,  0,  132.720,  0.00000,  0.12630,  0.00000,  0.00000,  1.00000,  1,  100.0,  110.600,  33.180
7167,  '1',  79.640,  38.015,  56.300,  -12.280,  1.04000,  0,  132.720,  0.00000,  0.10500,  0.00000,  0.00000,  1.00000,  1,  100.0,  110.600,  33.200
7168,  '1',  0.000,  44.650,  44.650,  -9.740,  1.04000,  0,  105.260,  0.00000,  0.20410,  0.00000,  0.00000,  1.00000,  0,  100.0,  87.720,  26.320
7169,  '1',  0.000,  44.650,  44.650,  -9.740,  1.04000,  0,  105.260,  0.00000,  0.14810,  0.00000,  0.00000,  1.00000,  0,  100.0,  87.720,  26.300
7170,  '1',  350.870,  111.040,  178.590,  -38.950,  1.04000,  0,  421.040,  0.00000,  0.12310,  0.00000,  0.00000,  1.00000,  1,  100.0,  350.870,  105.260
7189,  '1',  0.000,  3.510,  3.510,  -0.770,  1.03000,  0,  8.280,  0.00000,  0.14070,  0.00000,  0.00000,  1.00000,  0,  100.0,  6.900,  2.070
7190,  '1',  0.000,  12.132,  24.430,  -5.330,  1.03000,  0,  57.600,  0.00000,  0.14060,  0.00000,  0.00000,  1.00000,  0,  100.0,  48.000,  14.400
7191,  '1',  0.000,  0.000,  2.550,  -0.550,  1.03000,  0,  6.000,  0.00000,  0.14200,  0.00000,  0.00000,  1.00000,  0,  100.0,  5.000,  1.500
7192,  '1',  0.000,  17.205,  17.810,  -3.880,  1.03000,  0,  42.000,  0.00000,  0.16330,  0.00000,  0.00000,  1.00000,  0,  100.0,  35.000,  10.500
...
 0 /End of Generator data, Begin Branch data
1048,  1049,  '99',  0.00257,  0.33339,  0.00000,  0.00,  0.00,  0.00,  0.00000,  0.000,  0.00000,  0.00000,  0.00000,  0.00000,  1
1048,  1053,  '99',  0.00259,  0.24923,  0.00000,  0.00,  0.00,  0.00,  0.00000,  0.000,  0.00000,  0.00000,  0.00000,  0.00000,  1
1048,  1072,  '99',  0.77364,  4.15098,  0.00000,  0.00,  0.00,  0.00,  0.00000,  0.000,  0.00000,  0.00000,  0.00000,  0.00000,  1
1048,  1075,  '99',  0.78259,  4.85303,  0.00000,  0.00,  0.00,  0.00,  0.00000,  0.000,  0.00000,  0.00000,  0.00000,  0.00000,  1
1048,  1076,  '99',  0.36624,  2.40651,  0.00000,  0.00,  0.00,  0.00,  0.00000,  0.000,  0.00000,  0.00000,  0.00000,  0.00000,  1
1048,  1081,  '99',  0.16588,  1.02655,  0.00000,  0.00,  0.00,  0.00,  0.00000,  0.000,  0.00000,  0.00000,  0.00000,  0.00000,  1
1049,  1053,  '99',  -0.00762,  0.44608,  0.00000,  0.00,  0.00,  0.00,  0.00000,  0.000,  0.00000,  0.00000,  0.00000,  0.00000,  1
1049,  1076,  '99',  0.53696,  4.32400,  0.00000,  0.00,  0.00,  0.00,  0.00000,  0.000,  0.00000,  0.00000,  0.00000,  0.00000,  1
1049,  1081,  '99',  0.24633,  1.84498,  0.00000,  0.00,  0.00,  0.00,  0.00000,  0.000,  0.00000,  0.00000,  0.00000,  0.00000,  1
1053,  1076,  '99',  0.41010,  3.23140,  0.00000,  0.00,  0.00,  0.00,  0.00000,  0.000,  0.00000,  0.00000,  0.00000,  0.00000,  1
1053,  1081,  '99',  0.00296,  0.02936,  0.00000,  0.00,  0.00,  0.00,  0.00000,  0.000,  0.00000,  0.00000,  0.00000,  0.00000,  1
1072,  1073,  '99',  0.12905,  1.19568,  0.00000,  0.00,  0.00,  0.00,  0.00000,  0.000,  0.00000,  0.00000,  0.00000,  0.00000,  1
1072,  1074,  '99',  0.06192,  1.14585,  0.00000,  0.00,  0.00,  0.00,  0.00000,  0.000,  0.00000,  0.00000,  0.00000,  0.00000,  1
1072,  1075,  '99',  0.04153,  0.91717,  0.00000,  0.00,  0.00,  0.00,  0.00000,  0.000,  0.00000,  0.00000,  0.00000,  0.00000,  1
1072,  1076,  '99',  0.01654,  0.45434,  0.00000,  0.00,  0.00,  0.00,  0.00000,  0.000,  0.00000,  0.00000,  0.00000,  0.00000,  1
1072,  1077,  '99',  0.06770,  1.10843,  0.00000,  0.00,  0.00,  0.00,  0.00000,  0.000,  0.00000,  0.00000,  0.00000,  0.00000,  1
1072,  1081,  '99',  0.02393,  0.54032,  0.00000,  0.00,  0.00,  0.00,  0.00000,  0.000,  0.00000,  0.00000,  0.00000,  0.00000,  1
1072,  5263,  '99',  0.11980,  4.48086,  0.00000,  0.00,  0.00,  0.00,  0.00000,  0.000,  0.00000,  0.00000,  0.00000,  0.00000,  1
1073,  1074,  '99',  0.16054,  1.74254,  0.00000,  0.00,  0.00,  0.00,  0.00000,  0.000,  0.00000,  0.00000,  0.00000,  0.00000,  1
1073,  1075,  '99',  0.11626,  1.39524,  0.00000,  0.00,  0.00,  0.00,  0.00000,  0.000,  0.00000,  0.00000,  0.00000,  0.00000,  1
1073,  1076,  '99',  0.05145,  0.69139,  0.00000,  0.00,  0.00,  0.00,  0.00000,  0.000,  0.00000,  0.00000,  0.00000,  0.00000,  1
1073,  1077,  '99',  0.16719,  1.68519,  0.00000,  0.00,  0.00,  0.00,  0.00000,  0.000,  0.00000,  0.00000,  0.00000,  0.00000,  1
1073,  1081,  '99',  0.06768,  0.82199,  0.00000,  0.00,  0.00,  0.00,  0.00000,  0.000,  0.00000,  0.00000,  0.00000,  0.00000,  1
1074,  1075,  '99',  0.03955,  1.33534,  0.00000,  0.00,  0.00,  0.00,  0.00000,  0.000,  0.00000,  0.00000,  0.00000,  0.00000,  1
1074,  1076,  '99',  0.01373,  0.66140,  0.00000,  0.00,  0.00,  0.00,  0.00000,  0.000,  0.00000,  0.00000,  0.00000,  0.00000,  1
1074,  1077,  '99',  0.07327,  1.61421,  0.00000,  0.00,  0.00,  0.00,  0.00000,  0.000,  0.00000,  0.00000,  0.00000,  0.00000,  1
1074,  1081,  '99',  0.02252,  0.78666,  0.00000,  0.00,  0.00,  0.00,  0.00000,  0.000,  0.00000,  0.00000,  0.00000,  0.00000,  1
1075,  1076,  '99',  0.00636,  0.52924,  0.00000,  0.00,  0.00,  0.00,  0.00000,  0.000,  0.00000,  0.00000,  0.00000,  0.00000,  1
1075,  1077,  '99',  0.04734,  1.29196,  0.00000,  0.00,  0.00,  0.00,  0.00000,  0.000,  0.00000,  0.00000,  0.00000,  0.00000,  1
1075,  1081,  '99',  0.01252,  0.62952,  0.00000,  0.00,  0.00,  0.00,  0.00000,  0.000,  0.00000,  0.00000,  0.00000,  0.00000,  1
1076,  1077,  '99',  0.01778,  0.63995,  0.00000,  0.00,  0.00,  0.00,  0.00000,  0.000,  0.00000,  0.00000,  0.00000,  0.00000,  1
1076,  1081,  '99',  0.00344,  0.31178,  0.00000,  0.00,  0.00,  0.00,  0.00000,  0.000,  0.00000,  0.00000,  0.00000,  0.00000,  1
1076,  3028,  '99',  0.08934,  4.24437,  0.00000,  0.00,  0.00,  0.00,  0.00000,  0.000,  0.00000,  0.00000,  0.00000,  0.00000,  1
1076,  3045,  '99',  0.03986,  3.41748,  0.00000,  0.00,  0.00,  0.00,  0.00000,  0.000,  0.00000,  0.00000,  0.00000,  0.00000,  1
1076,  5238,  '99',  0.05823,  3.38645,  0.00000,  0.00,  0.00,  0.00,  0.00000,  0.000,  0.00000,  0.00000,  0.00000,  0.00000,  1
1076,  5262,  '99',  -0.01443,  3.62129,  0.00000,  0.00,  0.00,  0.00,  0.00000,  0.000,  0.00000,  0.00000,  0.00000,  0.00000,  1
1076,  5263,  '99',  -0.01681,  2.58405,  0.00000,  0.00,  0.00,  0.00,  0.00000,  0.000,  0.00000,  0.00000,  0.00000,  0.00000,  1
1077,  1081,  '99',  0.02714,  0.76111,  0.00000,  0.00,  0.00,  0.00,  0.00000,  0.000,  0.00000,  0.00000,  0.00000,  0.00000,  1
1081,  2057,  '99',  0.25210,  1.86279,  0.00000,  0.00,  0.00,  0.00,  0.00000,  0.000,  0.00000,  0.00000,  0.00000,  0.00000,  1
1081,  2100,  '99',  0.13259,  2.12450,  0.00000,  0.00,  0.00,  0.00,  0.00000,  0.000,  0.00000,  0.00000,  0.00000,  0.00000,  1
1081,  3028,  '99',  0.07236,  0.91497,  0.00000,  0.00,  0.00,  0.00,  0.00000,  0.000,  0.00000,  0.00000,  0.00000,  0.00000,  1
1081,  3045,  '99',  0.01664,  0.44274,  0.00000,  0.00,  0.00,  0.00,  0.00000,  0.000,  0.00000,  0.00000,  0.00000,  0.00000,  1
1081,  4026,  '99',  0.16291,  3.87076,  0.00000,  0.00,  0.00,  0.00,  0.00000,  0.000,  0.00000,  0.00000,  0.00000,  0.00000,  1
1081,  4115,  '99',  0.10666,  2.70563,  0.00000,  0.00,  0.00,  0.00,  0.00000,  0.000,  0.00000,  0.00000,  0.00000,  0.00000,  1
1081,  4116,  '99',  0.14012,  2.84572,  0.00000,  0.00,  0.00,  0.00,  0.00000,  0.000,  0.00000,  0.00000,  0.00000,  0.00000,  1
1081,  5057,  '99',  0.28786,  3.05364,  0.00000,  0.00,  0.00,  0.00,  0.00000,  0.000,  0.00000,  0.00000,  0.00000,  0.00000,  1
1081,  5058,  '99',  0.41343,  4.44713,  0.00000,  0.00,  0.00,  0.00,  0.00000,  0.000,  0.00000,  0.00000,  0.00000,  0.00000,  1
1081,  5238,  '99',  0.07245,  0.97495,  0.00000,  0.00,  0.00,  0.00,  0.00000,  0.000,  0.00000,  0.00000,  0.00000,  0.00000,  1
1081,  5262,  '99',  0.09089,  1.48809,  0.00000,  0.00,  0.00,  0.00,  0.00000,  0.000,  0.00000,  0.00000,  0.00000,  0.00000,  1
1081,  5263,  '99',  0.06219,  1.06203,  0.00000,  0.00,  0.00,  0.00,  0.00000,  0.000,  0.00000,  0.00000,  0.00000,  0.00000,  1
1081,  5415,  '99',  0.28315,  4.84989,  0.00000,  0.00,  0.00,  0.00,  0.00000,  0.000,  0.00000,  0.00000,  0.00000,  0.00000,  1
1081,  5416,  '99',  0.27191,  4.90534,  0.00000,  0.00,  0.00,  0.00,  0.00000,  0.000,  0.00000,  0.00000,  0.00000,  0.00000,  1
1081,  5417,  '99',  0.23058,  4.32417,  0.00000,  0.00,  0.00,  0.00,  0.00000,  0.000,  0.00000,  0.00000,  0.00000,  0.00000,  1
1081,  5418,  '99',  0.27608,  4.18172,  0.00000,  0.00,  0.00,  0.00,  0.00000,  0.000,  0.00000,  0.00000,  0.00000,  0.00000,  1
1081,  5419,  '99',  0.15423,  2.45185,  0.00000,  0.00,  0.00,  0.00,  0.00000,  0.000,  0.00000,  0.00000,  0.00000,  0.00000,  1
1081,  5444,  '99',  0.37606,  2.65596,  0.00000,  0.00,  0.00,  0.00,  0.00000,  0.000,  0.00000,  0.00000,  0.00000,  0.00000,  1
1081,  6215,  '99',  0.29484,  3.90835,  0.00000,  0.00,  0.00,  0.00,  0.00000,  0.000,  0.00000,  0.00000,  0.00000,  0.00000,  1
1081,  6349,  '99',  0.47813,  2.93616,  0.00000,  0.00,  0.00,  0.00,  0.00000,  0.000,  0.00000,  0.00000,  0.00000,  0.00000,  1
2004,  2005,  '99',  -0.00116,  0.09464,  0.00000,  0.00,  0.00,  0.00,  0.00000,  0.000,  0.00000,  0.00000,  0.00000,  0.00000,  1
2004,  2006,  '99',  -0.00267,  0.14790,  0.00000,  0.00,  0.00,  0.00,  0.00000,  0.000,  0.00000,  0.00000,  0.00000,  0.00000,  1
2004,  2024,  '99',  0.00888,  0.54095,  0.00000,  0.00,  0.00,  0.00,  0.00000,  0.000,  0.00000,  0.00000,  0.00000,  0.00000,  1
2004,  2103,  '99',  0.00066,  0.14623,  0.00000,  0.00,  0.00,  0.00,  0.00000,  0.000,  0.00000,  0.00000,  0.00000,  0.00000,  1
2004,  2104,  '99',  0.00053,  0.19154,  0.00000,  0.00,  0.00,  0.00,  0.00000,  0.000,  0.00000,  0.00000,  0.00000,  0.00000,  1
2004,  2105,  '99',  0.00321,  0.30228,  0.00000,  0.00,  0.00,  0.00,  0.00000,  0.000,  0.00000,  0.00000,  0.00000,  0.00000,  1
2004,  2115,  '99',  0.04210,  1.17431,  0.00000,  0.00,  0.00,  0.00,  0.00000,  0.000,  0.00000,  0.00000,  0.00000,  0.00000,  1
2004,  2116,  '99',  0.01793,  0.61212,  0.00000,  0.00,  0.00,  0.00,  0.00000,  0.000,  0.00000,  0.00000,  0.00000,  0.00000,  1
2004,  2117,  '99',  0.03463,  1.36001,  0.00000,  0.00,  0.00,  0.00,  0.00000,  0.000,  0.00000,  0.00000,  0.00000,  0.00000,  1
2004,  2118,  '99',  0.04336,  1.50602,  0.00000,  0.00,  0.00,  0.00,  0.00000,  0.000,  0.00000,  0.00000,  0.00000,  0.00000,  1
2004,  2119,  '99',  0.02217,  0.74505,  0.00000,  0.00,  0.00,  0.00,  0.00000,  0.000,  0.00000,  0.00000,  0.00000,  0.00000,  1
2004,  2120,  '99',  0.04427,  1.44730,  0.00000,  0.00,  0.00,  0.00,  0.00000,  0.000,  0.00000,  0.00000,  0.00000,  0.00000,  1
2004,  5037,  '99',  0.22786,  3.47446,  0.00000,  0.00,  0.00,  0.00,  0.00000,  0.000,  0.00000,  0.00000,  0.00000,  0.00000,  1
2004,  5038,  '99',  0.22807,  3.58627,  0.00000,  0.00,  0.00,  0.00,  0.00000,  0.000,  0.00000,  0.00000,  0.00000,  0.00000,  1
2004,  5039,  '99',  0.10684,  1.57704,  0.00000,  0.00,  0.00,  0.00,  0.00000,  0.000,  0.00000,  0.00000,  0.00000,  0.00000,  1
2004,  5040,  '99',  0.33856,  4.69289,  0.00000,  0.00,  0.00,  0.00,  0.00000,  0.000,  0.00000,  0.00000,  0.00000,  0.00000,  1
...